  
       XFOIL         Version 6.99
  
 Calculated polar for: NACA 2412                                       
  
 1 1 Reynolds number fixed          Mach number fixed         
  
 xtrf =   1.000 (top)        1.000 (bottom)  
 Mach =   0.000     Re =     1.000 e 6     Ncrit =   9.000  9.000
  
   alpha    CL        CD       CDp       CM     Top_Xtr  Bot_Xtr  Top_Itr  Bot_Itr
  ------ -------- --------- --------- -------- -------- -------- -------- --------
   0.000   0.2371   0.00564   0.00049  -0.0520   0.6517   0.6795  23.5781 139.8383
   1.000   0.3413   0.00548   0.00061  -0.0498   0.5859   0.8601  27.5833 150.4548
   2.000   0.4496   0.00578   0.00079  -0.0481   0.5256   0.9675  31.2661 157.0430
   3.000   0.5927   0.00635   0.00095  -0.0549   0.4636   0.9942  35.0636 159.3062
   4.000   0.7146   0.00693   0.00107  -0.0573   0.3980   1.0000  39.1124 160.0000
   5.000   0.8094   0.00775   0.00125  -0.0540   0.3155   1.0000  44.3267 160.0000
   6.000   0.9019   0.00905   0.00170  -0.0505   0.2121   1.0000  51.0223 160.0000
   7.000   0.9947   0.01068   0.00239  -0.0474   0.1185   1.0000  57.5009 160.0000
   8.000   1.0875   0.01234   0.00321  -0.0445   0.0660   1.0000  61.9050 160.0000
   9.000   1.1798   0.01392   0.00405  -0.0416   0.0436   1.0000  64.5710 160.0000
  10.000   1.2674   0.01567   0.00501  -0.0381   0.0324   1.0000  66.3700 160.0000
  11.000   1.3469   0.01766   0.00613  -0.0336   0.0262   1.0000  67.6395 160.0000
  12.000   1.4090   0.02001   0.00744  -0.0265   0.0222   1.0000  68.5825 160.0000
