  
       XFOIL         Version 6.99
  
 Calculated polar for: NACA 0012                                       
  
 1 1 Reynolds number fixed          Mach number fixed         
  
 xtrf =   1.000 (top)        1.000 (bottom)  
 Mach =   0.000     Re =     3.000 e 6     Ncrit =   9.000  9.000
  
   alpha    CL        CD       CDp       CM     Top_Xtr  Bot_Xtr  Top_Itr  Bot_Itr
  ------ -------- --------- --------- -------- -------- -------- -------- --------
   0.000  -0.0000   0.00509   0.00025   0.0000   0.5133   0.5133  31.4731 129.5269
   1.000   0.1118   0.00516   0.00028   0.0001   0.4177   0.6079  37.2578 135.2076
   2.000   0.2231   0.00535   0.00038   0.0003   0.3212   0.7024  43.1610 140.8677
   3.000   0.3333   0.00570   0.00057   0.0007   0.2272   0.7922  49.0454 146.2438
   4.000   0.4424   0.00618   0.00084   0.0014   0.1475   0.8704  54.2584 150.9289
   5.000   0.5498   0.00679   0.00121   0.0025   0.0905   0.9293  58.4301 154.5081
   6.000   0.6557   0.00749   0.00160   0.0040   0.0580   0.9685  61.4971 157.0906
   7.000   0.7690   0.00831   0.00206   0.0036   0.0389   0.9895  64.0409 158.8053
   8.000   0.8965   0.00925   0.00262  -0.0002   0.0281   0.9953  66.0366 159.4356
   9.000   1.0228   0.01024   0.00324  -0.0039   0.0222   0.9994  67.4281 159.9297
  10.000   1.1176   0.01125   0.00385  -0.0010   0.0186   1.0000  68.4173 160.0000
  11.000   1.2082   0.01240   0.00456   0.0027   0.0159   1.0000  69.2422 160.0000
  12.000   1.3009   0.01386   0.00548   0.0055   0.0136   1.0000  70.0244 160.0000
  13.000   1.3934   0.01529   0.00637   0.0080   0.0125   1.0000  70.4490 160.0000
  14.000   1.4763   0.01729   0.00763   0.0116   0.0110   1.0000  71.0364 160.0000
  15.000   1.5528   0.01926   0.00881   0.0158   0.0104   1.0000  71.2991 160.0000
  16.000   1.6031   0.02198   0.01036   0.0232   0.0096   1.0000  71.6235 160.0000
