 
       XFOIL         Version 6.96
  
 Calculated polar for: NACA 66(2)-415                                  
  
 1 1 Reynolds number fixed          Mach number fixed         
  
 xtrf =   1.000 (top)        1.000 (bottom)  
 Mach =   0.000     Re =     1.000 e 6     Ncrit =   9.000
  
   alpha    CL        CD       CDp       CM     Top_Xtr  Bot_Xtr
  ------ -------- --------- --------- -------- -------- --------
   0.000   0.3499   0.00662   0.00256  -0.0827   0.7565   0.7626
   0.250   0.3793   0.00669   0.00260  -0.0832   0.7545   0.7638
   0.500   0.4075   0.00661   0.00255  -0.0835   0.7522   0.7654
   0.750   0.4360   0.00656   0.00252  -0.0838   0.7492   0.7667
   1.000   0.4649   0.00654   0.00250  -0.0842   0.7467   0.7679
   1.250   0.4940   0.00654   0.00251  -0.0847   0.7446   0.7691
   1.500   0.5230   0.00655   0.00252  -0.0852   0.7424   0.7703
   1.750   0.5515   0.00655   0.00252  -0.0855   0.7380   0.7717
   2.000   0.5790   0.00649   0.00248  -0.0855   0.7326   0.7731
   2.250   0.6072   0.00645   0.00243  -0.0857   0.7271   0.7746
   2.500   0.6346   0.00643   0.00242  -0.0858   0.7206   0.7762
   2.750   0.6621   0.00640   0.00241  -0.0858   0.7146   0.7777
   3.000   0.6897   0.00641   0.00240  -0.0859   0.7076   0.7790
   3.250   0.7156   0.00639   0.00237  -0.0856   0.6957   0.7801
   3.500   0.7409   0.00636   0.00236  -0.0853   0.6811   0.7820
   3.750   0.7659   0.00639   0.00239  -0.0848   0.6652   0.7837
   4.000   0.7873   0.00652   0.00244  -0.0836   0.6297   0.7854
   4.250   0.7874   0.00735   0.00279  -0.0782   0.5273   0.7877
   4.500   0.7874   0.00822   0.00328  -0.0730   0.4411   0.7902
   4.750   0.7840   0.00902   0.00371  -0.0672   0.3637   0.7929
   5.000   0.7788   0.00989   0.00423  -0.0611   0.2900   0.7955
   5.250   0.7751   0.01085   0.00484  -0.0556   0.2142   0.7985
   5.500   0.7714   0.01194   0.00556  -0.0504   0.1330   0.8017
   5.750   0.7736   0.01294   0.00625  -0.0464   0.0696   0.8046
   6.000   0.7848   0.01363   0.00680  -0.0439   0.0420   0.8074
   6.250   0.8011   0.01412   0.00726  -0.0423   0.0354   0.8099
   6.500   0.8202   0.01450   0.00765  -0.0412   0.0334   0.8122
   6.750   0.8379   0.01492   0.00808  -0.0399   0.0311   0.8151
   7.000   0.8530   0.01548   0.00869  -0.0382   0.0286   0.8180
   7.250   0.8722   0.01586   0.00910  -0.0372   0.0275   0.8209
   7.500   0.8907   0.01628   0.00954  -0.0361   0.0262   0.8239
   7.750   0.9076   0.01682   0.01008  -0.0348   0.0246   0.8270
   8.000   0.9211   0.01754   0.01085  -0.0330   0.0231   0.8302
   8.250   0.9391   0.01798   0.01135  -0.0319   0.0225   0.8336
   8.500   0.9571   0.01845   0.01186  -0.0308   0.0215   0.8372
   8.750   0.9744   0.01899   0.01242  -0.0297   0.0206   0.8410
   9.000   0.9905   0.01961   0.01306  -0.0285   0.0197   0.8447
   9.250   0.9993   0.02064   0.01416  -0.0262   0.0187   0.8493
   9.500   1.0153   0.02126   0.01484  -0.0250   0.0184   0.8538
   9.750   1.0316   0.02189   0.01552  -0.0239   0.0180   0.8584
  10.000   1.0475   0.02253   0.01622  -0.0227   0.0173   0.8630
  10.250   1.0632   0.02316   0.01691  -0.0215   0.0167   0.8682
  10.500   1.0778   0.02392   0.01771  -0.0203   0.0164   0.8737
  10.750   1.0927   0.02464   0.01847  -0.0191   0.0159   0.8794
  11.000   1.1050   0.02551   0.01939  -0.0177   0.0154   0.8860
  11.250   1.1094   0.02705   0.02102  -0.0154   0.0149   0.8929
  11.500   1.1232   0.02783   0.02189  -0.0141   0.0147   0.9007
  11.750   1.1369   0.02864   0.02277  -0.0129   0.0144   0.9091
  12.000   1.1481   0.02963   0.02385  -0.0113   0.0143   0.9192
  12.250   1.1597   0.03052   0.02483  -0.0098   0.0139   0.9314
  12.500   1.1700   0.03149   0.02593  -0.0083   0.0137   0.9500
  12.750   1.1890   0.03257   0.02711  -0.0088   0.0134   1.0000
  13.000   1.2010   0.03383   0.02844  -0.0079   0.0133   1.0000
  13.250   1.2138   0.03501   0.02966  -0.0072   0.0130   1.0000
  13.500   1.2261   0.03623   0.03093  -0.0064   0.0128   1.0000
  13.750   1.2371   0.03758   0.03233  -0.0056   0.0126   1.0000
  14.000   1.2474   0.03901   0.03382  -0.0048   0.0124   1.0000
  14.250   1.2571   0.04052   0.03538  -0.0040   0.0123   1.0000
  14.500   1.2655   0.04222   0.03716  -0.0032   0.0122   1.0000
  14.750   1.2702   0.04448   0.03951  -0.0021   0.0118   1.0000
  15.000   1.2742   0.04703   0.04222  -0.0010   0.0117   1.0000
  15.250   1.2819   0.04860   0.04387  -0.0006   0.0116   1.0000
  15.500   1.2873   0.05068   0.04607   0.0000   0.0115   1.0000
  15.750   1.2926   0.05278   0.04828   0.0005   0.0114   1.0000
  16.000   1.2943   0.05544   0.05107   0.0011   0.0113   1.0000
  16.250   1.2966   0.05798   0.05372   0.0014   0.0112   1.0000
  16.500   1.2964   0.06091   0.05680   0.0016   0.0111   1.0000
  16.750   1.2956   0.06400   0.06002   0.0016   0.0109   1.0000
  17.000   1.2917   0.06761   0.06377   0.0014   0.0109   1.0000
  17.250   1.2877   0.07130   0.06759   0.0010   0.0108   1.0000
  17.500   1.2792   0.07580   0.07226   0.0002   0.0107   1.0000
  17.750   1.2725   0.08018   0.07679  -0.0009   0.0106   1.0000
  18.000   1.2602   0.08563   0.08241  -0.0025   0.0106   1.0000
  18.250   1.2481   0.09125   0.08819  -0.0046   0.0105   1.0000
  18.500   1.2272   0.09867   0.09582  -0.0076   0.0105   1.0000
  18.750   1.2107   0.10566   0.10297  -0.0111   0.0105   1.0000