  
       XFOIL         Version 6.99
  
 Calculated polar for: NYU/GRUMMAN K-1 AIRFOIL                         
  
 1 1 Reynolds number fixed          Mach number fixed         
  
 xtrf =   1.000 (top)        1.000 (bottom)  
 Mach =   0.000     Re =     1.000 e 6     Ncrit =   9.000  9.000
  
   alpha    CL        CD       CDp       CM     Top_Xtr  Bot_Xtr  Top_Itr  Bot_Itr
  ------ -------- --------- --------- -------- -------- -------- -------- --------
   0.000   0.2893   0.00525   0.00067  -0.0838   0.8159   0.6017  21.4804 208.9839
   1.000   0.4049   0.00531   0.00061  -0.0838   0.7692   0.6254  26.0173 211.1153
   2.000   0.5104   0.00662   0.00079  -0.0823   0.5169   0.6468  49.5357 213.0430
   3.000   0.6103   0.00898   0.00155  -0.0808   0.1897   0.6655  79.2335 214.7430
   4.000   0.7201   0.00986   0.00196  -0.0804   0.1339   0.6824  84.4974 216.2814
   5.000   0.8296   0.01067   0.00234  -0.0799   0.0987   0.6985  88.3199 217.7513
   6.000   0.9330   0.01221   0.00310  -0.0785   0.0377   0.7135  98.7778 219.1419
   7.000   1.0353   0.01377   0.00405  -0.0769   0.0234   0.7282 103.4430 220.5122
   8.000   1.1356   0.01543   0.00510  -0.0750   0.0190   0.7434 105.2949 221.9524
   9.000   1.2313   0.01736   0.00641  -0.0724   0.0167   0.7585 106.4024 223.4100
  10.000   1.3200   0.01974   0.00804  -0.0691   0.0151   0.7757 107.2284 225.0918
  11.000   1.4003   0.02243   0.00993  -0.0647   0.0139   0.7960 107.8489 227.1207
  12.000   1.4606   0.02588   0.01243  -0.0576   0.0131   0.8279 108.3158 230.3512
  13.000   1.5002   0.02950   0.01523  -0.0485   0.0124   1.0000 108.7166 250.0000
  14.000   1.5150   0.03629   0.02010  -0.0397   0.0119   1.0000 109.0014 250.0000
  15.000   1.5219   0.04462   0.02679  -0.0337   0.0116   1.0000 109.1946 250.0000
  16.000   1.5000   0.05797   0.03798  -0.0321   0.0113   1.0000 109.3640 250.0000
